[General]
sim-time-limit = 1s	# Simulation length (in simtime)
#network = EdgeNodeExampleAuto
tkenv-plugin-path = ../../INET/Etc/plugins
#debug-on-errors = true
#user-interface=Cmdenv
#record-eventlog = true

**.result-recording-modes = all
#**.obs.vector-recording = true
#**.endToEndDelay**.vector-recording = true
#**.avgPacketTime.vector-recording = true
#**.sentBurstsSlowPath**.vector-recording = true
#**.sentBurstsFastPath**.vector-recording = true
#**.disassembler.**.vector-recording = true
#**OXC**.vector-recording = tue
#**controlswitch**.scalar-recording = true
**.vector-recording = false
**.scalar-recording = true


[Config TwentyRacksSlowwithStability100msPlain]
network = EdgeNodeExampleLarge
**.dataRate = 10Gbps 	#Optical channel data rate = 1Gb per lambda
**.dataRateFast = 10Gbps 	#Optical channel data rate = 1Gb per lambda

# Burstifier configuration (the same parameters for all)
#===================================================================
**.numPacketBurstifiers = 63

**edge**.timeout = 100us #uniform(100us,110us)#5us #2ms
**.packetBurstifier[*].maxSize = 500KiB #uniform(450KiB,550KiB)#40000000B
**.**.packetBurstifier[*].numPackets = 0

#**.packetBurstifier[*].timeout = uniform(2.2ms,1.8ms)#5us #2ms

**.packetBurstifier[*].overflowLastPacket = true
**.packetBurstifier[*].cteHeader = 0B
**.packetBurstifier[*].varHeader = 1B
# Burst Sender configuration
#===============================
**.sender.BCPSize = 26B # BCP size
**.sender.maxSchedBurstSize = 0 #maximum size (bits) of Sender's scheduled burst queue (0 = infinite queue)
**.sender.maxSchedBurstElems = 0 #maximum number of queued bursts (0 = infinite)
**.sender.testing = false # If true, the module doesn't try to register to Edge Node's interface table. Used for debugging purposes only

**.numberofracks=64

**.numChannelFastSwitch=0
**.numChannelSlowSwitch=20 
      
**.switchTimeSlowSwitch=0.01s 
**.switchTimeFastSwitch=1us
**.processingTime = 1us

**.idleTime = 2ms
**.shortBurstSize = 4MiB
**.overHead = 1us
 
#Guard time
**.guardTime = 1us

#Host application configuration
#==============================
# udp app (on)

**.numUdpApps = 1
**.mac.address = "auto"

**.udpApp[*].typename = "UDPBasicApp"
#**.udpApp[*].chooseDestAddrMode = "perSend"
#**.network{1..64}host{21..30}.udpApp[*].burstDuration = exponential (1s)
#**.network{1..64}host{21..30}.udpApp[*].sleepDuration = exponential (0.1s)
#**.udpApp[*].burstDuration = exponential (1ms)
#**.udpApp[*].sleepDuration = exponential (0.2ms)

#**.network{1..64}host{1..20}.udpApp[*].burstDuration = 0s
#**.network{1..64}host{1..20}.udpApp[*].sleepDuration = 0s


#**.udpApp[*].burstDuration = exponential (1s)
#**.udpApp[*].sleepDuration = exponential (0.1s)

**.udpApp[*].startTime= 0s

**.timerForDestination = 0.100001s

#**.udpApp[*].typename = "UDPBasicApp"
**.queue.frameCapacity = 10000


#**.network*host{21..40}.udpApp[*].destAddresses = moduleListByPath("**.network*host{21..40}")

#**.network1host{1..20}.udpApp[*].destAddresses = moduleListByPath("**.network1host*")
#**.network2host{1..20}.udpApp[*].destAddresses = moduleListByPath("**.network2host*")
#**.network3host{1..20}.udpApp[*].destAddresses = moduleListByPath("**.network3host*")
#**.network4host{1..20}.udpApp[*].destAddresses = moduleListByPath("**.network4host*")
#**.network5host{1..20}.udpApp[*].destAddresses = moduleListByPath("**.network5host*")
#**.network6host{1..20}.udpApp[*].destAddresses = moduleListByPath("**.network6host*")
#**.network7host{1..20}.udpApp[*].destAddresses = moduleListByPath("**.network7host*")
#**.network8host{1..20}.udpApp[*].destAddresses = moduleListByPath("**.network8host*")
#**.network9host{1..20}.udpApp[*].destAddresses = moduleListByPath("**.network9host*")
#**.network10host{1..20}.udpApp[*].destAddresses = moduleListByPath("**.network10host*")
#**.network11host{1..20}.udpApp[*].destAddresses = moduleListByPath("**.network11host*")
#**.network12host{1..20}.udpApp[*].destAddresses = moduleListByPath("**.network12host*")
#**.network13host{1..20}.udpApp[*].destAddresses = moduleListByPath("**.network13host*")
#**.network14host{1..20}.udpApp[*].destAddresses = moduleListByPath("**.network14host*")
#**.network15host{1..20}.udpApp[*].destAddresses = moduleListByPath("**.network15host*")
#**.network16host{1..20}.udpApp[*].destAddresses = moduleListByPath("**.network16host*")
#**.network17host{1..20}.udpApp[*].destAddresses = moduleListByPath("**.network17host*")
#**.network18host{1..20}.udpApp[*].destAddresses = moduleListByPath("**.network18host*")
#**.network19host{1..20}.udpApp[*].destAddresses = moduleListByPath("**.network19host*")
#**.network20host{1..20}.udpApp[*].destAddresses = moduleListByPath("**.network20host*")
#**.network21host{1..20}.udpApp[*].destAddresses = moduleListByPath("**.network21host*")



#**.network1host{21..40}.udpApp[*].destAddresses = moduleListByPath("**.network{2..21}host*")
#**.network2host{21..40}.udpApp[*].destAddresses = moduleListByPath("**.network1host*","**.network{3..21}host*")
#**.network3host{21..40}.udpApp[*].destAddresses = moduleListByPath("**.network{1..2}host*","**.network{4..21}host*")
#**.network4host{21..40}.udpApp[*].destAddresses = moduleListByPath("**.network{1..3}host*","**.network{5..21}host*")
#**.network5host{21..40}.udpApp[*].destAddresses = moduleListByPath("**.network{1..4}host*","**.network{6..21}host*")
#**.network6host{21..40}.udpApp[*].destAddresses = moduleListByPath("**.network{1..5}host*","**.network{7..21}host*")
#**.network7host{21..40}.udpApp[*].destAddresses = moduleListByPath("**.network{1..6}host*","**.network{8..21}host*")
#**.network8host{21..40}.udpApp[*].destAddresses = moduleListByPath("**.network{1..7}host*","**.network{9..21}host*")
#**.network9host{21..40}.udpApp[*].destAddresses = moduleListByPath("**.network{1..8}host*","**.network{10..21}host*")
#**.network10host{21..40}.udpApp[*].destAddresses = moduleListByPath("**.network{1..9}host*","**.network{11..21}host*")
#**.network11host{21..40}.udpApp[*].destAddresses = moduleListByPath("**.network{1..10}host*","**.network{12..21}host*")
#**.network12host{21..40}.udpApp[*].destAddresses = moduleListByPath("**.network{1..11}host*","**.network{13..21}host*")
#**.network13host{21..40}.udpApp[*].destAddresses = moduleListByPath("**.network{1..12}host*","**.network{14..21}host*")
#**.network14host{21..40}.udpApp[*].destAddresses = moduleListByPath("**.network{1..13}host*","**.network{15..21}host*")
#**.network15host{21..40}.udpApp[*].destAddresses = moduleListByPath("**.network{1..14}host*","**.network{16..21}host*")
#**.network16host{21..40}.udpApp[*].destAddresses = moduleListByPath("**.network{1..15}host*","**.network{17..21}host*")
#**.network17host{21..40}.udpApp[*].destAddresses = moduleListByPath("**.network{1..16}host*","**.network{18..21}host*")
#**.network18host{21..40}.udpApp[*].destAddresses = moduleListByPath("**.network{1..17}host*","**.network{19..21}host*")
#**.network19host{21..40}.udpApp[*].destAddresses = moduleListByPath("**.network{1..18}host*","**.network{20..21}host*")
#**.network20host{21..40}.udpApp[*].destAddresses = moduleListByPath("**.network{1..19}host*","**.network21host*")
#**.network21host{21..40}.udpApp[*].destAddresses = moduleListByPath("**.network{1..20}host*")


#**.network22host{21..40}.udpApp[*].destAddresses = moduleListByPath("**.network{23..42}host*")
#**.network23host{21..40}.udpApp[*].destAddresses = moduleListByPath("**.network22host*","**.network{24..42}host*")
#**.network24host{21..40}.udpApp[*].destAddresses = moduleListByPath("**.network{22..23}host*","**.network{25..42}host*")
#**.network25host{21..40}.udpApp[*].destAddresses = moduleListByPath("**.network{22..24}host*","**.network{26..42}host*")
#**.network26host{21..40}.udpApp[*].destAddresses = moduleListByPath("**.network{22..25}host*","**.network{27..42}host*")
#**.network27host{21..40}.udpApp[*].destAddresses = moduleListByPath("**.network{22..26}host*","**.network{28..42}host*")
#**.network28host{21..40}.udpApp[*].destAddresses = moduleListByPath("**.network{22..27}host*","**.network{29..42}host*")
#**.network29host{21..40}.udpApp[*].destAddresses = moduleListByPath("**.network{22..28}host*","**.network{30..42}host*")
#**.network30host{21..40}.udpApp[*].destAddresses = moduleListByPath("**.network{22..29}host*","**.network{31..42}host*")
#**.network31host{21..40}.udpApp[*].destAddresses = moduleListByPath("**.network{22..30}host*","**.network{32..42}host*")
#**.network32host{21..40}.udpApp[*].destAddresses = moduleListByPath("**.network{22..31}host*","**.network{33..42}host*")
#**.network33host{21..40}.udpApp[*].destAddresses = moduleListByPath("**.network{22..32}host*","**.network{34..42}host*")
#**.network34host{21..40}.udpApp[*].destAddresses = moduleListByPath("**.network{22..33}host*","**.network{35..42}host*")
#**.network35host{21..40}.udpApp[*].destAddresses = moduleListByPath("**.network{22..34}host*","**.network{36..42}host*")
#**.network36host{21..40}.udpApp[*].destAddresses = moduleListByPath("**.network{22..35}host*","**.network{37..42}host*")#
#**.network37host{21..40}.udpApp[*].destAddresses = moduleListByPath("**.network{22..36}host*","**.network{38..42}host*")
#**.network38host{21..40}.udpApp[*].destAddresses = moduleListByPath("**.network{22..37}host*","**.network{39..42}host*")
#**.network39host{21..40}.udpApp[*].destAddresses = moduleListByPath("**.network{22..38}host*","**.network{40..42}host*")
#**.network40host{21..40}.udpApp[*].destAddresses = moduleListByPath("**.network{22..39}host*","**.network{41..42}host*")
#**.network41host{21..40}.udpApp[*].destAddresses = moduleListByPath("**.network{22..40}host*","**.network42host*")
#**.network42host{21..40}.udpApp[*].destAddresses = moduleListByPath("**.network{22..41}host*")

#**.network43host{21..40}.udpApp[*].destAddresses = moduleListByPath("**.network{44..63}host*")
#**.network44host{21..40}.udpApp[*].destAddresses = moduleListByPath("**.network43host*","**.network{45..63}host*")
#**.network45host{21..40}.udpApp[*].destAddresses = moduleListByPath("**.network{43..44}host*","**.network{46..63}host*")
#**.network46host{21..40}.udpApp[*].destAddresses = moduleListByPath("**.network{43..45}host*","**.network{47..63}host*")
#**.network47host{21..40}.udpApp[*].destAddresses = moduleListByPath("**.network{43..46}host*","**.network{48..63}host*")
#**.network48host{21..40}.udpApp[*].destAddresses = moduleListByPath("**.network{43..47}host*","**.network{49..63}host*")
#**.network49host{21..40}.udpApp[*].destAddresses = moduleListByPath("**.network{43..48}host*","**.network{50..63}host*")
#**.network50host{21..40}.udpApp[*].destAddresses = moduleListByPath("**.network{43..49}host*","**.network{51..63}host*")
#**.network51host{21..40}.udpApp[*].destAddresses = moduleListByPath("**.network{43..50}host*","**.network{52..63}host*")
#**.network52host{21..40}.udpApp[*].destAddresses = moduleListByPath("**.network{43..51}host*","**.network{53..63}host*")
#**.network53host{21..40}.udpApp[*].destAddresses = moduleListByPath("**.network{43..52}host*","**.network{54..63}host*")
#**.network54host{21..40}.udpApp[*].destAddresses = moduleListByPath("**.network{43..53}host*","**.network{55..63}host*")
#**.network55host{21..40}.udpApp[*].destAddresses = moduleListByPath("**.network{43..54}host*","**.network{56..63}host*")
#**.network56host{21..40}.udpApp[*].destAddresses = moduleListByPath("**.network{43..55}host*","**.network{57..63}host*")
#**.network57host{21..40}.udpApp[*].destAddresses = moduleListByPath("**.network{43..56}host*","**.network{58..63}host*")
#**.network58host{21..40}.udpApp[*].destAddresses = moduleListByPath("**.network{43..57}host*","**.network{59..63}host*")
#**.network59host{21..40}.udpApp[*].destAddresses = moduleListByPath("**.network{43..58}host*","**.network{60..63}host*")
#**.network60host{21..40}.udpApp[*].destAddresses = moduleListByPath("**.network{43..59}host*","**.network{61..63}host*")
#**.network61host{21..40}.udpApp[*].destAddresses = moduleListByPath("**.network{43..60}host*","**.network{62..63}host*")
#**.network62host{21..40}.udpApp[*].destAddresses = moduleListByPath("**.network{43..61}host*","**.network63host*")
#**.network63host{21..40}.udpApp[*].destAddresses = moduleListByPath("**.network{43..62}host*")


**.network1host{21..40}.udpApp[*].destAddresses = (simTime() <= 0.1s ? moduleListByPath("**.network{2..21}host*") : (simTime() <= 0.2s ? moduleListByPath("**.network{23..42}host*") : (simTime() <= 0.3s ? moduleListByPath("**.network{2..21}host*") : (simTime() <= 0.4s ? moduleListByPath("**.network{23..42}host*") : (simTime() <= 0.5s ? moduleListByPath("**.network{2..21}host*") : (simTime() <= 0.6s ? moduleListByPath("**.network{23..42}host*") : (simTime() <= 0.7s ? moduleListByPath("**.network{2..21}host*") : (simTime() <= 0.8s ? moduleListByPath("**.network{23..42}host*") : (simTime() <= 0.9s ? moduleListByPath("**.network{2..21}host*") : moduleListByPath("**.network{23..42}host*"))))))))))
**.network22host{21..40}.udpApp[*].destAddresses = (simTime() <= 0.1s ? moduleListByPath("**.network{23..42}host*") : (simTime() <= 0.2s ? moduleListByPath("**.network{2..21}host*") : (simTime() <= 0.3s ? moduleListByPath("**.network{23..42}host*") : (simTime() <= 0.4s ? moduleListByPath("**.network{2..21}host*") : (simTime() <= 0.5s ? moduleListByPath("**.network{23..42}host*") : (simTime() <= 0.6s ? moduleListByPath("**.network{2..21}host*") : (simTime() <= 0.7s ? moduleListByPath("**.network{23..42}host*") : (simTime() <= 0.8s ? moduleListByPath("**.network{2..21}host*") : (simTime() <= 0.9s ? moduleListByPath("**.network{23..42}host*") : moduleListByPath("**.network{2..21}host*"))))))))))
**.network2host{21..40}.udpApp[*].destAddresses = (simTime() <= 0.1s ? moduleListByPath("**.network1host*","**.network{3..21}host*") : (simTime() <= 0.2s ? moduleListByPath("**.network22host*","**.network{24..42}host*") : (simTime() <= 0.3s ? moduleListByPath("**.network1host*","**.network{3..21}host*") : (simTime() <= 0.4s ? moduleListByPath("**.network22host*","**.network{24..42}host*") : (simTime() <= 0.5s ? moduleListByPath("**.network1host*","**.network{3..21}host*") : (simTime() <= 0.6s ? moduleListByPath("**.network22host*","**.network{24..42}host*") : (simTime() <= 0.7s ? moduleListByPath("**.network1host*","**.network{3..21}host*") : (simTime() <= 0.8s ? moduleListByPath("**.network22host*","**.network{24..42}host*") : (simTime() <= 0.9s ? moduleListByPath("**.network1host*","**.network{3..21}host*") : moduleListByPath("**.network22host*","**.network{24..42}host*"))))))))))
**.network23host{21..40}.udpApp[*].destAddresses = (simTime() <= 0.1s ? moduleListByPath("**.network22host*","**.network{24..42}host*") : (simTime() <= 0.2s ? moduleListByPath("**.network1host*","**.network{3..21}host*") : (simTime() <= 0.3s ? moduleListByPath("**.network22host*","**.network{24..42}host*") : (simTime() <= 0.4s ? moduleListByPath("**.network1host*","**.network{3..21}host*") : (simTime() <= 0.5s ? moduleListByPath("**.network22host*","**.network{24..42}host*") : (simTime() <= 0.6s ? moduleListByPath("**.network1host*","**.network{3..21}host*") : (simTime() <= 0.7s ? moduleListByPath("**.network22host*","**.network{24..42}host*") : (simTime() <= 0.8s ? moduleListByPath("**.network1host*","**.network{3..21}host*") : (simTime() <= 0.9s ? moduleListByPath("**.network22host*","**.network{24..42}host*") : moduleListByPath("**.network1host*","**.network{3..21}host*")))))))))) 
**.network3host{21..40}.udpApp[*].destAddresses = (simTime() <= 0.1s ? moduleListByPath("**.network{1..2}host*","**.network{4..21}host*") : (simTime() <= 0.2s ? moduleListByPath("**.network{22..23}host*","**.network{25..42}host*") : (simTime() <= 0.3s ? moduleListByPath("**.network{1..2}host*","**.network{4..21}host*") : (simTime() <= 0.4s ? moduleListByPath("**.network{22..23}host*","**.network{25..42}host*") : (simTime() <= 0.5s ? moduleListByPath("**.network{1..2}host*","**.network{4..21}host*") : (simTime() <= 0.6s ? moduleListByPath("**.network{22..23}host*","**.network{25..42}host*") : (simTime() <= 0.7s ? moduleListByPath("**.network{1..2}host*","**.network{4..21}host*") : (simTime() <= 0.8s ? moduleListByPath("**.network{22..23}host*","**.network{25..42}host*") : (simTime() <= 0.9s ? moduleListByPath("**.network{1..2}host*","**.network{4..21}host*") : moduleListByPath("**.network{22..23}host*","**.network{25..42}host*")))))))))) 
**.network24host{21..40}.udpApp[*].destAddresses =(simTime() <= 0.1s ? moduleListByPath("**.network{22..23}host*","**.network{25..42}host*") : (simTime() <= 0.2s ? moduleListByPath("**.network{1..2}host*","**.network{4..21}host*") : (simTime() <= 0.3s ? moduleListByPath("**.network{22..23}host*","**.network{25..42}host*") : (simTime() <= 0.4s ? moduleListByPath("**.network{1..2}host*","**.network{4..21}host*") : (simTime() <= 0.5s ? moduleListByPath("**.network{22..23}host*","**.network{25..42}host*") : (simTime() <= 0.6s ? moduleListByPath("**.network{1..2}host*","**.network{4..21}host*") : (simTime() <= 0.7s ? moduleListByPath("**.network{22..23}host*","**.network{25..42}host*") : (simTime() <= 0.8s ? moduleListByPath("**.network{1..2}host*","**.network{4..21}host*") : (simTime() <= 0.9s ? moduleListByPath("**.network{22..23}host*","**.network{25..42}host*") : moduleListByPath("**.network{1..2}host*","**.network{4..21}host*")))))))))) 
**.network4host{21..40}.udpApp[*].destAddresses = (simTime() <= 0.1s ? moduleListByPath("**.network{1..3}host*","**.network{5..21}host*") : (simTime() <= 0.2s ? moduleListByPath("**.network{22..24}host*","**.network{26..42}host*") : (simTime() <= 0.3s ? moduleListByPath("**.network{1..3}host*","**.network{5..21}host*") : (simTime() <= 0.4s ? moduleListByPath("**.network{22..24}host*","**.network{26..42}host*") : (simTime() <= 0.5s ? moduleListByPath("**.network{1..3}host*","**.network{5..21}host*") : (simTime() <= 0.6s ? moduleListByPath("**.network{22..24}host*","**.network{26..42}host*") : (simTime() <= 0.7s ? moduleListByPath("**.network{1..3}host*","**.network{5..21}host*") : (simTime() <= 0.8s ? moduleListByPath("**.network{22..24}host*","**.network{26..42}host*") : (simTime() <= 0.9s ? moduleListByPath("**.network{1..3}host*","**.network{5..21}host*") : moduleListByPath("**.network{22..24}host*","**.network{26..42}host*"))))))))))  
**.network25host{21..40}.udpApp[*].destAddresses = (simTime() <= 0.1s ? moduleListByPath("**.network{22..24}host*","**.network{26..42}host*") : (simTime() <= 0.2s ? moduleListByPath("**.network{1..3}host*","**.network{5..21}host*") : (simTime() <= 0.3s ? moduleListByPath("**.network{22..24}host*","**.network{26..42}host*") : (simTime() <= 0.4s ? moduleListByPath("**.network{1..3}host*","**.network{5..21}host*") : (simTime() <= 0.5s ? moduleListByPath("**.network{22..24}host*","**.network{26..42}host*") : (simTime() <= 0.6s ? moduleListByPath("**.network{1..3}host*","**.network{5..21}host*") : (simTime() <= 0.7s ? moduleListByPath("**.network{22..24}host*","**.network{26..42}host*") : (simTime() <= 0.8s ? moduleListByPath("**.network{1..3}host*","**.network{5..21}host*") : (simTime() <= 0.9s ? moduleListByPath("**.network{22..24}host*","**.network{26..42}host*") : moduleListByPath("**.network{1..3}host*","**.network{5..21}host*")))))))))) 
**.network5host{21..40}.udpApp[*].destAddresses = (simTime() <= 0.1s ? moduleListByPath("**.network{1..4}host*","**.network{6..21}host*") : (simTime() <= 0.2s ? moduleListByPath("**.network{22..25}host*","**.network{27..42}host*") : (simTime() <= 0.3s ? moduleListByPath("**.network{1..4}host*","**.network{6..21}host*") : (simTime() <= 0.4s ? moduleListByPath("**.network{22..25}host*","**.network{27..42}host*") : (simTime() <= 0.5s ? moduleListByPath("**.network{1..4}host*","**.network{6..21}host*") : (simTime() <= 0.6s ? moduleListByPath("**.network{22..25}host*","**.network{27..42}host*") : (simTime() <= 0.7s ? moduleListByPath("**.network{1..4}host*","**.network{6..21}host*") : (simTime() <= 0.8s ? moduleListByPath("**.network{22..25}host*","**.network{27..42}host*") : (simTime() <= 0.9s ? moduleListByPath("**.network{1..4}host*","**.network{6..21}host*") : moduleListByPath("**.network{22..25}host*","**.network{27..42}host*")))))))))) 
**.network26host{21..40}.udpApp[*].destAddresses = (simTime() <= 0.1s ? moduleListByPath("**.network{22..25}host*","**.network{27..42}host*") : (simTime() <= 0.2s ? moduleListByPath("**.network{1..4}host*","**.network{6..21}host*") : (simTime() <= 0.3s ? moduleListByPath("**.network{22..25}host*","**.network{27..42}host*") : (simTime() <= 0.4s ? moduleListByPath("**.network{1..4}host*","**.network{6..21}host*") : (simTime() <= 0.5s ? moduleListByPath("**.network{22..25}host*","**.network{27..42}host*") : (simTime() <= 0.6s ? moduleListByPath("**.network{1..4}host*","**.network{6..21}host*") : (simTime() <= 0.7s ? moduleListByPath("**.network{22..25}host*","**.network{27..42}host*") : (simTime() <= 0.8s ? moduleListByPath("**.network{1..4}host*","**.network{6..21}host*") : (simTime() <= 0.9s ? moduleListByPath("**.network{22..25}host*","**.network{27..42}host*") : moduleListByPath("**.network{1..4}host*","**.network{6..21}host*")))))))))) 
**.network6host{21..40}.udpApp[*].destAddresses = (simTime() <= 0.1s ? moduleListByPath("**.network{1..5}host*","**.network{7..21}host*") : (simTime() <= 0.2s ? moduleListByPath("**.network{22..26}host*","**.network{28..42}host*") : (simTime() <= 0.3s ? moduleListByPath("**.network{1..5}host*","**.network{7..21}host*") : (simTime() <= 0.4s ? moduleListByPath("**.network{22..26}host*","**.network{28..42}host*") : (simTime() <= 0.5s ? moduleListByPath("**.network{1..5}host*","**.network{7..21}host*") : (simTime() <= 0.6s ? moduleListByPath("**.network{22..26}host*","**.network{28..42}host*") : (simTime() <= 0.7s ? moduleListByPath("**.network{1..5}host*","**.network{7..21}host*") : (simTime() <= 0.8s ? moduleListByPath("**.network{22..26}host*","**.network{28..42}host*") : (simTime() <= 0.9s ? moduleListByPath("**.network{1..5}host*","**.network{7..21}host*") : moduleListByPath("**.network{22..26}host*","**.network{28..42}host*")))))))))) 
**.network27host{21..40}.udpApp[*].destAddresses = (simTime() <= 0.1s ? moduleListByPath("**.network{22..26}host*","**.network{28..42}host*") : (simTime() <= 0.2s ? moduleListByPath("**.network{1..5}host*","**.network{7..21}host*") : (simTime() <= 0.3s ? moduleListByPath("**.network{22..26}host*","**.network{28..42}host*") : (simTime() <= 0.4s ? moduleListByPath("**.network{1..5}host*","**.network{7..21}host*") : (simTime() <= 0.5s ? moduleListByPath("**.network{22..26}host*","**.network{28..42}host*") : (simTime() <= 0.6s ? moduleListByPath("**.network{1..5}host*","**.network{7..21}host*") : (simTime() <= 0.7s ? moduleListByPath("**.network{22..26}host*","**.network{28..42}host*") : (simTime() <= 0.8s ? moduleListByPath("**.network{1..5}host*","**.network{7..21}host*") : (simTime() <= 0.9s ? moduleListByPath("**.network{22..26}host*","**.network{28..42}host*") : moduleListByPath("**.network{1..5}host*","**.network{7..21}host*")))))))))) 
**.network7host{21..40}.udpApp[*].destAddresses = (simTime() <= 0.1s ? moduleListByPath("**.network{1..6}host*","**.network{8..21}host*") : (simTime() <= 0.2s ? moduleListByPath("**.network{22..27}host*","**.network{29..42}host*") : (simTime() <= 0.3s ? moduleListByPath("**.network{1..6}host*","**.network{8..21}host*") : (simTime() <= 0.4s ? moduleListByPath("**.network{22..27}host*","**.network{29..42}host*") : (simTime() <= 0.5s ? moduleListByPath("**.network{1..6}host*","**.network{8..21}host*") : (simTime() <= 0.6s ? moduleListByPath("**.network{22..27}host*","**.network{29..42}host*") : (simTime() <= 0.7s ? moduleListByPath("**.network{1..6}host*","**.network{8..21}host*") : (simTime() <= 0.8s ? moduleListByPath("**.network{22..27}host*","**.network{29..42}host*") : (simTime() <= 0.9s ? moduleListByPath("**.network{1..6}host*","**.network{8..21}host*") : moduleListByPath("**.network{22..27}host*","**.network{29..42}host*")))))))))) 
**.network28host{21..40}.udpApp[*].destAddresses = (simTime() <= 0.1s ? moduleListByPath("**.network{22..27}host*","**.network{29..42}host*") : (simTime() <= 0.2s ? moduleListByPath("**.network{1..6}host*","**.network{8..21}host*") : (simTime() <= 0.3s ? moduleListByPath("**.network{22..27}host*","**.network{29..42}host*") : (simTime() <= 0.4s ? moduleListByPath("**.network{1..6}host*","**.network{8..21}host*") : (simTime() <= 0.5s ? moduleListByPath("**.network{22..27}host*","**.network{29..42}host*") : (simTime() <= 0.6s ? moduleListByPath("**.network{1..6}host*","**.network{8..21}host*") : (simTime() <= 0.7s ? moduleListByPath("**.network{22..27}host*","**.network{29..42}host*") : (simTime() <= 0.8s ? moduleListByPath("**.network{1..6}host*","**.network{8..21}host*") : (simTime() <= 0.9s ? moduleListByPath("**.network{22..27}host*","**.network{29..42}host*") : moduleListByPath("**.network{1..6}host*","**.network{8..21}host*"))))))))))
**.network8host{21..40}.udpApp[*].destAddresses = (simTime() <= 0.1s ? moduleListByPath("**.network{1..7}host*","**.network{9..21}host*") : (simTime() <= 0.2s ? moduleListByPath("**.network{22..28}host*","**.network{30..42}host*") : (simTime() <= 0.3s ? moduleListByPath("**.network{1..7}host*","**.network{9..21}host*") : (simTime() <= 0.4s ? moduleListByPath("**.network{22..28}host*","**.network{30..42}host*") : (simTime() <= 0.5s ? moduleListByPath("**.network{1..7}host*","**.network{9..21}host*") : (simTime() <= 0.6s ? moduleListByPath("**.network{22..28}host*","**.network{30..42}host*") : (simTime() <= 0.7s ? moduleListByPath("**.network{1..7}host*","**.network{9..21}host*") : (simTime() <= 0.8s ? moduleListByPath("**.network{22..28}host*","**.network{30..42}host*") : (simTime() <= 0.9s ? moduleListByPath("**.network{1..7}host*","**.network{9..21}host*") : moduleListByPath("**.network{22..28}host*","**.network{30..42}host*"))))))))))
**.network29host{21..40}.udpApp[*].destAddresses = (simTime() <= 0.1s ? moduleListByPath("**.network{22..28}host*","**.network{30..42}host*") : (simTime() <= 0.2s ? moduleListByPath("**.network{1..7}host*","**.network{9..21}host*") : (simTime() <= 0.3s ? moduleListByPath("**.network{22..28}host*","**.network{30..42}host*") : (simTime() <= 0.4s ? moduleListByPath("**.network{1..7}host*","**.network{9..21}host*") : (simTime() <= 0.5s ? moduleListByPath("**.network{22..28}host*","**.network{30..42}host*") : (simTime() <= 0.6s ? moduleListByPath("**.network{1..7}host*","**.network{9..21}host*") : (simTime() <= 0.7s ? moduleListByPath("**.network{22..28}host*","**.network{30..42}host*") : (simTime() <= 0.8s ? moduleListByPath("**.network{1..7}host*","**.network{9..21}host*") : (simTime() <= 0.9s ? moduleListByPath("**.network{22..28}host*","**.network{30..42}host*") : moduleListByPath("**.network{1..7}host*","**.network{9..21}host*")))))))))) 
**.network9host{21..40}.udpApp[*].destAddresses = (simTime() <= 0.1s ? moduleListByPath("**.network{1..8}host*","**.network{10..21}host*") : (simTime() <= 0.2s ? moduleListByPath("**.network{22..29}host*","**.network{31..42}host*") : (simTime() <= 0.3s ? moduleListByPath("**.network{1..8}host*","**.network{10..21}host*") : (simTime() <= 0.4s ? moduleListByPath("**.network{22..29}host*","**.network{31..42}host*") : (simTime() <= 0.5s ? moduleListByPath("**.network{1..8}host*","**.network{10..21}host*") : (simTime() <= 0.6s ? moduleListByPath("**.network{22..29}host*","**.network{31..42}host*") : (simTime() <= 0.7s ? moduleListByPath("**.network{1..8}host*","**.network{10..21}host*") : (simTime() <= 0.8s ? moduleListByPath("**.network{22..29}host*","**.network{31..42}host*") : (simTime() <= 0.9s ? moduleListByPath("**.network{1..8}host*","**.network{10..21}host*") : moduleListByPath("**.network{22..29}host*","**.network{31..42}host*")))))))))) 
**.network30host{21..40}.udpApp[*].destAddresses = (simTime() <= 0.1s ? moduleListByPath("**.network{22..29}host*","**.network{31..42}host*") : (simTime() <= 0.2s ? moduleListByPath("**.network{1..8}host*","**.network{10..21}host*") : (simTime() <= 0.3s ? moduleListByPath("**.network{22..29}host*","**.network{31..42}host*") : (simTime() <= 0.4s ? moduleListByPath("**.network{1..8}host*","**.network{10..21}host*") : (simTime() <= 0.5s ? moduleListByPath("**.network{22..29}host*","**.network{31..42}host*") : (simTime() <= 0.6s ? moduleListByPath("**.network{1..8}host*","**.network{10..21}host*") : (simTime() <= 0.7s ? moduleListByPath("**.network{22..29}host*","**.network{31..42}host*") : (simTime() <= 0.8s ? moduleListByPath("**.network{1..8}host*","**.network{10..21}host*") : (simTime() <= 0.9s ? moduleListByPath("**.network{22..29}host*","**.network{31..42}host*") : moduleListByPath("**.network{1..8}host*","**.network{10..21}host*")))))))))) 
**.network10host{21..40}.udpApp[*].destAddresses = (simTime() <= 0.1s ? moduleListByPath("**.network{1..9}host*","**.network{11..21}host*") : (simTime() <= 0.2s ? moduleListByPath("**.network{22..30}host*","**.network{32..42}host*") : (simTime() <= 0.3s ? moduleListByPath("**.network{1..9}host*","**.network{11..21}host*") : (simTime() <= 0.4s ? moduleListByPath("**.network{22..30}host*","**.network{32..42}host*") : (simTime() <= 0.5s ? moduleListByPath("**.network{1..9}host*","**.network{11..21}host*") : (simTime() <= 0.6s ? moduleListByPath("**.network{22..30}host*","**.network{32..42}host*") : (simTime() <= 0.7s ? moduleListByPath("**.network{1..9}host*","**.network{11..21}host*") : (simTime() <= 0.8s ? moduleListByPath("**.network{22..30}host*","**.network{32..42}host*") : (simTime() <= 0.9s ? moduleListByPath("**.network{1..9}host*","**.network{11..21}host*") : moduleListByPath("**.network{22..30}host*","**.network{32..42}host*")))))))))) 